14 

O  2.8660    2.0000    0.0000 
O  2.8660   -2.0000    0.0000 
C  2.8660    1.0000    0.0000 
C  2.8660   -1.0000    0.0000 
C  3.7321    0.5000    0.0000 
C  3.7321   -0.5000    0.0000 
C  2.0000    0.5000    0.0000 
C  2.0000   -0.5000    0.0000 
H  4.2690    0.8100    0.0000 
H  4.2690   -0.8100    0.0000 
H  1.4631    0.8100    0.0000 
H  1.4631   -0.8100    0.0000 
H  3.4030    2.3100    0.0000 
H  2.3291   -2.3100    0.0000 